558
      BALL 1.4.0 (Jan  4 2012, 23:22:29)

 24 67  0999  0  0  0  0  0  0999 V2000
    9.9390   12.7108   -1.3158 O   0  0  0  0  0  0  0  0  0  0  0  0
    7.8740   12.5620   -0.6241 O   0  0  0  0  0  0  0  0  0  0  0  0
    9.8866   11.8407   -0.1836 O   0  0  0  0  0  0  0  0  0  0  0  0
    9.0187   11.0850    0.9990 O   0  0  0  0  0  0  0  0  0  0  0  0
    7.9787   14.3022   -2.8886 O   0  0  0  0  0  0  0  0  0  0  0  0
   11.6223   13.3520   -2.5486 O   0  0  0  0  0  0  0  0  0  0  0  0
   11.5699   12.4819   -1.4163 O   0  0  0  0  0  0  0  0  0  0  0  0
    7.9264   13.4321   -1.7564 N   0  0  0  0  0  0  0  0  0  0  0  0
    8.7942   14.1877   -2.9389 N   0  0  0  0  0  0  0  0  0  0  0  0
    8.8466   15.0579   -4.0712 N   0  0  0  0  0  0  0  0  0  0  0  0
   10.0437   14.4511   -3.5804 N   0  0  0  0  0  0  0  0  0  0  0  0
    9.1234   12.8253   -1.2655 C   0  0  0  0  0  0  0  0  0  0  0  0
    8.7418   13.3176   -1.8066 C   0  0  0  0  0  0  0  0  0  0  0  0
    8.6895   12.4475   -0.6743 C   0  0  0  0  0  0  0  0  0  0  0  0
    9.1758   13.6954   -2.3978 C   0  0  0  0  0  0  0  0  0  0  0  0
    9.0710   11.9552   -0.1333 C   0  0  0  0  0  0  0  0  0  0  0  0
    9.9913   13.5810   -2.4481 C   0  0  0  0  0  0  0  0  0  0  0  0
   10.3729   13.0887   -1.9071 C   0  0  0  0  0  0  0  0  0  0  0  0
    8.6371   11.5773    0.4580 C   0  0  0  0  0  0  0  0  0  0  0  0
    7.5448   13.9244   -2.2973 C   0  0  0  0  0  0  0  0  0  0  0  0
   11.1884   12.9742   -1.9574 C   0  0  0  0  0  0  0  0  0  0  0  0
    9.2281   14.5656   -3.5301 C   0  0  0  0  0  0  0  0  0  0  0  0
    6.7293   14.0388   -2.2471 C   0  0  0  0  0  0  0  0  0  0  0  0
    9.4287   12.4315   -0.8328 H   0  0  0  0  0  0  0  0  0  0  0  0
  1 12  1  0  0  0  0
  1 18  1  0  0  0  0
  1 21  1  0  0  0  0
  1  3  1  0  0  0  0
  1 14  1  0  0  0  0
  1 13  1  0  0  0  0
  1 17  1  0  0  0  0
  2 14  1  0  0  0  0
  2 16  1  0  0  0  0
  2 12  1  0  0  0  0
  2  8  1  0  0  0  0
  3 16  1  0  0  0  0
  3 19  1  0  0  0  0
  3 24  1  0  0  0  0
  3 14  1  0  0  0  0
  4 19  1  0  0  0  0
  4 16  1  0  0  0  0
  5 20  2  0  0  0  0
  5  8  1  0  0  0  0
  5 22  1  0  0  0  0
  5 15  1  0  0  0  0
  5 23  1  0  0  0  0
  6 21  1  0  0  0  0
  6 18  1  0  0  0  0
  6  7  1  0  0  0  0
  7 21  2  0  0  0  0
  7 18  1  0  0  0  0
  8 13  1  0  0  0  0
  8 20  1  0  0  0  0
  8 12  1  0  0  0  0
  8 15  1  0  0  0  0
  8 23  1  0  0  0  0
  9 15  1  0  0  0  0
  9 22  2  0  0  0  0
  9 13  1  0  0  0  0
  9 11  1  0  0  0  0
  9 17  1  0  0  0  0
  9 20  1  0  0  0  0
  9 10  1  0  0  0  0
 10 22  1  0  0  0  0
 10 11  1  0  0  0  0
 11 22  1  0  0  0  0
 11 17  1  0  0  0  0
 12 13  1  0  0  0  0
 12 14  1  0  0  0  0
 12 24  1  0  0  0  0
 12 18  4  0  0  0  0
 12 16  4  0  0  0  0
 12 17  1  0  0  0  0
 12 15  4  0  0  0  0
 13 15  1  0  0  0  0
 13 18  1  0  0  0  0
 13 14  4  0  0  0  0
 13 17  4  0  0  0  0
 13 20  4  0  0  0  0
 14 16  1  0  0  0  0
 14 19  4  0  0  0  0
 15 17  1  0  0  0  0
 15 18  4  0  0  0  0
 15 22  4  0  0  0  0
 15 20  1  0  0  0  0
 16 19  1  0  0  0  0
 17 18  2  0  0  0  0
 17 21  4  0  0  0  0
 17 22  1  0  0  0  0
 18 21  1  0  0  0  0
 20 23  1  0  0  0  0
M  END
> <DATABASE_ID>
DB00558

> <DATABASE_NAME>
drugbank

> <SMILES>
[H][C@]1(OC(=C[C@H](N=C(N)N)[C@H]1NC(C)=O)C(O)=O)[C@H](O)[C@H](O)CO

> <INCHI_IDENTIFIER>
InChI=1S/C12H20N4O7/c1-4(18)15-8-5(16-12(13)14)2-7(11(21)22)23-10(8)9(20)6(19)3-17/h2,5-6,8-10,17,19-20H,3H2,1H3,(H,15,18)(H,21,22)(H4,13,14,16)/t5-,6+,8+,9+,10+/m0/s1

> <INCHI_KEY>
ARAIBEBZBOPLMB-UFGQHTETSA-N

> <FORMULA>
C12H20N4O7

> <MOLECULAR_WEIGHT>
332.3098

> <EXACT_MASS>
332.133199014

> <JCHEM_ACCEPTOR_COUNT>
10

> <JCHEM_AVERAGE_POLARIZABILITY>
31.239618997916516

> <JCHEM_BIOAVAILABILITY>
0

> <JCHEM_DONOR_COUNT>
7

> <JCHEM_FORMAL_CHARGE>
0

> <JCHEM_GHOSE_FILTER>
0

> <JCHEM_IUPAC>
(2R,3R,4S)-4-[(diaminomethylidene)amino]-3-acetamido-2-[(1R,2R)-1,2,3-trihydroxypropyl]-3,4-dihydro-2H-pyran-6-carboxylic acid

> <ALOGPS_LOGP>
-2.30

> <JCHEM_LOGP>
-5.827718904459089

> <ALOGPS_LOGS>
-1.66

> <JCHEM_MDDR_LIKE_RULE>
0

> <JCHEM_NUMBER_OF_RINGS>
1

> <JCHEM_PHYSIOLOGICAL_CHARGE>
0

> <JCHEM_PKA>
12.792990691849301

> <JCHEM_PKA_STRONGEST_ACIDIC>
3.253616213833814

> <JCHEM_PKA_STRONGEST_BASIC>
11.933899630682804

> <JCHEM_POLAR_SURFACE_AREA>
200.72000000000003

> <JCHEM_REFRACTIVITY>
76.19000000000003

> <JCHEM_ROTATABLE_BOND_COUNT>
6

> <JCHEM_RULE_OF_FIVE>
0

> <ALOGPS_SOLUBILITY>
7.31e+00 g/l

> <JCHEM_TRADITIONAL_IUPAC>
zanamivir

> <JCHEM_VEBER_RULE>
0

> <DRUGBANK_ID>
DB00558

> <SECONDARY_ACCESSION_NUMBERS>
APRD00378

> <DRUG_GROUPS>
approved; investigational

> <GENERIC_NAME>
Zanamivir

> <PRODUCTS>
Relenza

> <atoms in reference ligand area>
23

> <score>
-24.9196

$$$$
